/*--------------------------------*- C++ -*----------------------------------*\
| =========                 |                                                 |
| \\      /  F ield         | OpenFOAM: The Open Source CFD Toolbox           |
|  \\    /   O peration     | Version:  dev                                   |
|   \\  /    A nd           | Web:      www.OpenFOAM.org                      |
|    \\/     M anipulation  |                                                 |
\*---------------------------------------------------------------------------*/
FoamFile
{
    version         2;
    format          ascii;
    class           dictionary;
    location        "constant";
    object          thermophysicalProperties;
}
// * * * * * * * * * * * * * * * * * * * * * * * * * * * * * * * * * * * * * //

inner
{
    Umean             (8.31 0 0);//OK
    midRadius         0.009075;//OK
    width             0.00545;//OK
    center            (0 0 0);//OK
}
outer
{
    Umean             (18.7 0 0);//OK 
    midRadius         0.01505;//OK
    width             0.0047;//OK
    center            (0 0 0);//OK        
}
