!<><><><><><><><><><><><><><><><><><><><><><><><><><><><><><><><><><><><><!     
! Reduced version of GRI-MECH 1.2. 22 species ( + N2, AR); 104 reactions. !     
!                                 PennState,  Dec, 1994.                  !     
!<><><><><><><><><><><><><><><><><><><><><><><><><><><><><><><><><><><><><!     
ELEMENTS                                                                        
O  H  C  N  AR                                                                  
END                                                                             
SPECIES                                                                         
CH4 OH CH2O
N2 O2 CO2  H2O H2                                         
END                                                                                                                                                    

