/*--------------------------------*- C++ -*----------------------------------*\
  =========                 |
  \\      /  F ield         | OpenFOAM: The Open Source CFD Toolbox
   \\    /   O peration     | Website:  https://openfoam.org
    \\  /    A nd           | Version:  7  
     \\/     M anipulation  |
\*---------------------------------------------------------------------------*/
FoamFile
{
    version     2.0;
    format      ascii;
    class       volVectorField;
    location    "0";
    object      U;
}
// * * * * * * * * * * * * * * * * * * * * * * * * * * * * * * * * * * * * * //

dimensions      [0 1 -1 0 0 0 0];

internalField   uniform (0 0 0.9);

boundaryField
{
    wallTube
    {
        type            noSlip;
    }

    outlet
    {
        type            pressureInletOutletVelocity;
        value           $internalField;
    }

    inletPilot
    {
        type            fixedValue;
        value           uniform (0 0 11.4);
    }

    inletAir
    {
        type            fixedValue;
        value           uniform (0 0 0.9);
    }

    wallOutside
    {
        type            zeroGradient;
    }

    inletCH4
    {
        //type            fixedValue;
        type            decayingTurbulenceInflowGeneratorMod_ZY;
        value           uniform (0 0 49.6);
        LField 0.001;
        RField (1 2 3 4 5 6);
        direction 2;
        Umean  (0 0 49.6);
        width 0.001;
        midRadius 0.01;
        center (0 0 0.001);
        
    }

    frontAndBack_pos
    {
        type            wedge;
    }

    frontAndBack_neg
    {
        type            wedge;
    }
}


// ************************************************************************* //
