!<><><><><><><><><><><><><><><><><><><><><><><><><><><><><><><><><><><><><!     
! Reduced version of GRI-MECH 1.2. 22 species ( + N2, AR); 104 reactions. !     
!                                 PennState,  Dec, 1994.                  !     
!<><><><><><><><><><><><><><><><><><><><><><><><><><><><><><><><><><><><><!     
ELEMENTS                                                                        
O  H  C  N  AR                                                                  
END                                                                             
SPECIES                                                                         
    O2
    H2O
    CH4
    CO2
    N2                                                     
END                                                                             
REACTIONS                                                                       
CH4+2O2=>CO2+2H2O                             5.000E+17   -1.000      0.00           
END                                                                             

